<?xml version="1.0" encoding="UTF-8"?>

<!-- generated on 2023-04-07 18:11:26 by Eclipse SUMO netedit Version 1.16.0
<configuration xmlns:xsi="http://www.w3.org/2001/XMLSchema-instance" xsi:noNamespaceSchemaLocation="http://sumo.dlr.de/xsd/netconvertConfiguration.xsd">

    <input>
        <sumocfg-file value="D:\eternal_sumo\demo\cross_junction\cross_junction.sumocfg"/>
        <sumo-net-file value="D:\eternal_sumo\demo\cross_junction\cross_junction.net.xml"/>
    </input>

    <output>
        <output-file value="D:\eternal_sumo\demo\cross_junction\cross_junction.net.xml"/>
    </output>

    <processing>
        <offset.disable-normalization value="true"/>
    </processing>

    <junctions>
        <no-turnarounds value="true"/>
    </junctions>

    <netedit>
        <new-network value="false"/>
    </netedit>

</configuration>
-->

<net version="1.16" junctionCornerDetail="5" limitTurnSpeed="5.50" xmlns:xsi="http://www.w3.org/2001/XMLSchema-instance" xsi:noNamespaceSchemaLocation="http://sumo.dlr.de/xsd/net_file.xsd">

    <location netOffset="0.00,0.00" convBoundary="0.00,-150.00,300.00,150.00" origBoundary="10000000000.00,10000000000.00,-10000000000.00,-10000000000.00" projParameter="!"/>

    <edge id=":J1_0" function="internal">
        <lane id=":J1_0_0" index="0" speed="13.89" length="11.20" shape="148.40,4.00 148.40,-7.20"/>
    </edge>
    <edge id=":J1_1" function="internal">
        <lane id=":J1_1_0" index="0" speed="6.51" length="9.03" shape="148.40,4.00 148.75,1.55 149.80,-0.20 151.55,-1.25 154.00,-1.60"/>
    </edge>
    <edge id=":J1_2" function="internal">
        <lane id=":J1_2_0" index="0" speed="6.51" length="9.03" shape="142.80,-1.60 145.25,-1.95 147.00,-3.00 148.05,-4.75 148.40,-7.20"/>
    </edge>
    <edge id=":J1_3" function="internal">
        <lane id=":J1_3_0" index="0" speed="13.89" length="11.20" shape="142.80,-1.60 154.00,-1.60"/>
    </edge>

    <edge id="E0" from="J0" to="J1" priority="-1">
        <lane id="E0_0" index="0" speed="13.89" length="142.80" shape="0.00,-1.60 142.80,-1.60"/>
    </edge>
    <edge id="E1" from="J1" to="J2" priority="-1">
        <lane id="E1_0" index="0" speed="13.89" length="146.00" shape="154.00,-1.60 300.00,-1.60"/>
    </edge>
    <edge id="E2" from="J3" to="J1" priority="-1">
        <lane id="E2_0" index="0" speed="13.89" length="146.00" shape="148.40,150.00 148.40,4.00"/>
    </edge>
    <edge id="E3" from="J1" to="J4" priority="-1">
        <lane id="E3_0" index="0" speed="13.89" length="142.80" shape="148.40,-7.20 148.40,-150.00"/>
    </edge>

    <tlLogic id="J1" type="static" programID="0" offset="0">
        <phase duration="42" state="GGrr"/>
        <phase duration="3"  state="yyrr"/>
        <phase duration="42" state="rrGG"/>
        <phase duration="3"  state="rryy"/>
    </tlLogic>

    <junction id="J0" type="dead_end" x="0.00" y="0.00" incLanes="" intLanes="" shape="0.00,0.00 0.00,-3.20"/>
    <junction id="J1" type="traffic_light" x="150.00" y="0.00" incLanes="E2_0 E0_0" intLanes=":J1_0_0 :J1_1_0 :J1_2_0 :J1_3_0" shape="146.80,4.00 150.00,4.00 150.44,1.78 151.00,1.00 151.78,0.44 152.78,0.11 154.00,0.00 154.00,-3.20 151.78,-3.64 151.00,-4.20 150.44,-4.98 150.11,-5.98 150.00,-7.20 146.80,-7.20 146.36,-4.98 145.80,-4.20 145.02,-3.64 144.02,-3.31 142.80,-3.20 142.80,0.00 145.02,0.44 145.80,1.00 146.36,1.78 146.69,2.78">
        <request index="0" response="1100" foes="1100" cont="0"/>
        <request index="1" response="1000" foes="1000" cont="0"/>
        <request index="2" response="0000" foes="0001" cont="0"/>
        <request index="3" response="0000" foes="0011" cont="0"/>
    </junction>
    <junction id="J2" type="dead_end" x="300.00" y="0.00" incLanes="E1_0" intLanes="" shape="300.00,-3.20 300.00,0.00"/>
    <junction id="J3" type="dead_end" x="150.00" y="150.00" incLanes="" intLanes="" shape="150.00,150.00 146.80,150.00"/>
    <junction id="J4" type="dead_end" x="150.00" y="-150.00" incLanes="E3_0" intLanes="" shape="146.80,-150.00 150.00,-150.00"/>

    <connection from="E0" to="E3" fromLane="0" toLane="0" via=":J1_2_0" tl="J1" linkIndex="2" dir="r" state="O"/>
    <connection from="E0" to="E1" fromLane="0" toLane="0" via=":J1_3_0" tl="J1" linkIndex="3" dir="s" state="O"/>
    <connection from="E2" to="E3" fromLane="0" toLane="0" via=":J1_0_0" tl="J1" linkIndex="0" dir="s" state="o"/>
    <connection from="E2" to="E1" fromLane="0" toLane="0" via=":J1_1_0" tl="J1" linkIndex="1" dir="l" state="o"/>

    <connection from=":J1_0" to="E3" fromLane="0" toLane="0" dir="s" state="M"/>
    <connection from=":J1_1" to="E1" fromLane="0" toLane="0" dir="l" state="M"/>
    <connection from=":J1_2" to="E3" fromLane="0" toLane="0" dir="r" state="M"/>
    <connection from=":J1_3" to="E1" fromLane="0" toLane="0" dir="s" state="M"/>

</net>
