<?xml version="1.0" encoding="UTF-8"?>

<!-- generated on 2023-04-08 14:18:00 by Eclipse SUMO netedit Version 1.16.0
<configuration xmlns:xsi="http://www.w3.org/2001/XMLSchema-instance" xsi:noNamespaceSchemaLocation="http://sumo.dlr.de/xsd/netconvertConfiguration.xsd">

    <input>
        <sumocfg-file value="D:\eternal_sumo\demo\cross_junction\cross_junction.sumocfg"/>
        <route-files value="D:\eternal_sumo\demo\cross_junction\cross_junction.rou.xml"/>
        <sumo-net-file value="D:\eternal_sumo\demo\cross_junction\cross_junction.net.xml"/>
    </input>

    <output>
        <output-file value="D:\eternal_sumo\demo\cross_junction\cross_junction.net.xml"/>
    </output>

    <processing>
        <geometry.min-radius.fix.railways value="false"/>
        <geometry.max-grade.fix value="false"/>
        <offset.disable-normalization value="true"/>
        <lefthand value="0"/>
    </processing>

    <junctions>
        <no-turnarounds value="true"/>
        <junctions.corner-detail value="5"/>
        <junctions.limit-turn-speed value="5.50"/>
        <rectangular-lane-cut value="0"/>
    </junctions>

    <pedestrian>
        <walkingareas value="0"/>
    </pedestrian>

</configuration>
-->

<net version="1.16" junctionCornerDetail="5" limitTurnSpeed="5.50" xmlns:xsi="http://www.w3.org/2001/XMLSchema-instance" xsi:noNamespaceSchemaLocation="http://sumo.dlr.de/xsd/net_file.xsd">

    <location netOffset="0.00,0.00" convBoundary="0.00,-150.00,300.00,150.00" origBoundary="-10000000000.00,-10000000000.00,10000000000.00,10000000000.00" projParameter="!"/>

    <edge id=":J1_0" function="internal">
        <lane id=":J1_0_0" index="0" speed="6.51" length="9.03" shape="142.00,13.60 141.65,11.15 140.60,9.40 138.85,8.35 136.40,8.00"/>
    </edge>
    <edge id=":J1_1" function="internal">
        <lane id=":J1_1_0" index="0" speed="13.89" length="27.20" shape="142.00,13.60 142.00,-13.60"/>
        <lane id=":J1_1_1" index="1" speed="13.89" length="27.20" shape="145.20,13.60 145.20,-13.60"/>
        <lane id=":J1_1_2" index="2" speed="13.89" length="27.20" shape="148.40,13.60 148.40,-13.60"/>
    </edge>
    <edge id=":J1_4" function="internal">
        <lane id=":J1_4_0" index="0" speed="10.36" length="5.01" shape="148.40,13.60 149.11,8.64"/>
    </edge>
    <edge id=":J1_20" function="internal">
        <lane id=":J1_20_0" index="0" speed="10.36" length="19.50" shape="149.11,8.64 149.35,6.95 152.20,2.20 156.95,-0.65 163.60,-1.60"/>
    </edge>
    <edge id=":J1_5" function="internal">
        <lane id=":J1_5_0" index="0" speed="6.51" length="9.03" shape="163.60,8.00 161.15,8.35 159.40,9.40 158.35,11.15 158.00,13.60"/>
    </edge>
    <edge id=":J1_6" function="internal">
        <lane id=":J1_6_0" index="0" speed="13.89" length="27.20" shape="163.60,8.00 136.40,8.00"/>
        <lane id=":J1_6_1" index="1" speed="13.89" length="27.20" shape="163.60,4.80 136.40,4.80"/>
        <lane id=":J1_6_2" index="2" speed="13.89" length="27.20" shape="163.60,1.60 136.40,1.60"/>
    </edge>
    <edge id=":J1_9" function="internal">
        <lane id=":J1_9_0" index="0" speed="10.36" length="5.01" shape="163.60,1.60 158.64,0.89"/>
    </edge>
    <edge id=":J1_21" function="internal">
        <lane id=":J1_21_0" index="0" speed="10.36" length="19.50" shape="158.64,0.89 156.95,0.65 152.20,-2.20 149.35,-6.95 148.40,-13.60"/>
    </edge>
    <edge id=":J1_10" function="internal">
        <lane id=":J1_10_0" index="0" speed="6.51" length="9.03" shape="158.00,-13.60 158.35,-11.15 159.40,-9.40 161.15,-8.35 163.60,-8.00"/>
    </edge>
    <edge id=":J1_11" function="internal">
        <lane id=":J1_11_0" index="0" speed="13.89" length="27.20" shape="158.00,-13.60 158.00,13.60"/>
        <lane id=":J1_11_1" index="1" speed="13.89" length="27.20" shape="154.80,-13.60 154.80,13.60"/>
        <lane id=":J1_11_2" index="2" speed="13.89" length="27.20" shape="151.60,-13.60 151.60,13.60"/>
    </edge>
    <edge id=":J1_14" function="internal">
        <lane id=":J1_14_0" index="0" speed="10.36" length="5.01" shape="151.60,-13.60 150.89,-8.64"/>
    </edge>
    <edge id=":J1_22" function="internal">
        <lane id=":J1_22_0" index="0" speed="10.36" length="19.50" shape="150.89,-8.64 150.65,-6.95 147.80,-2.20 143.05,0.65 136.40,1.60"/>
    </edge>
    <edge id=":J1_15" function="internal">
        <lane id=":J1_15_0" index="0" speed="6.51" length="9.03" shape="136.40,-8.00 138.85,-8.35 140.60,-9.40 141.65,-11.15 142.00,-13.60"/>
    </edge>
    <edge id=":J1_16" function="internal">
        <lane id=":J1_16_0" index="0" speed="13.89" length="27.20" shape="136.40,-8.00 163.60,-8.00"/>
        <lane id=":J1_16_1" index="1" speed="13.89" length="27.20" shape="136.40,-4.80 163.60,-4.80"/>
        <lane id=":J1_16_2" index="2" speed="13.89" length="27.20" shape="136.40,-1.60 163.60,-1.60"/>
    </edge>
    <edge id=":J1_19" function="internal">
        <lane id=":J1_19_0" index="0" speed="10.36" length="5.01" shape="136.40,-1.60 141.36,-0.89"/>
    </edge>
    <edge id=":J1_23" function="internal">
        <lane id=":J1_23_0" index="0" speed="10.36" length="19.50" shape="141.36,-0.89 143.05,-0.65 147.80,2.20 150.65,6.95 151.60,13.60"/>
    </edge>

    <edge id="-E0" from="J1" to="J0" priority="-1">
        <lane id="-E0_0" index="0" speed="13.89" length="136.40" shape="136.40,8.00 0.00,8.00"/>
        <lane id="-E0_1" index="1" speed="13.89" length="136.40" shape="136.40,4.80 0.00,4.80"/>
        <lane id="-E0_2" index="2" speed="13.89" length="136.40" shape="136.40,1.60 0.00,1.60"/>
    </edge>
    <edge id="-E1" from="J2" to="J1" priority="-1">
        <lane id="-E1_0" index="0" speed="13.89" length="136.40" shape="300.00,8.00 163.60,8.00"/>
        <lane id="-E1_1" index="1" speed="13.89" length="136.40" shape="300.00,4.80 163.60,4.80"/>
        <lane id="-E1_2" index="2" speed="13.89" length="136.40" shape="300.00,1.60 163.60,1.60"/>
    </edge>
    <edge id="-E2" from="J1" to="J3" priority="-1">
        <lane id="-E2_0" index="0" speed="13.89" length="136.40" shape="158.00,13.60 158.00,150.00"/>
        <lane id="-E2_1" index="1" speed="13.89" length="136.40" shape="154.80,13.60 154.80,150.00"/>
        <lane id="-E2_2" index="2" speed="13.89" length="136.40" shape="151.60,13.60 151.60,150.00"/>
    </edge>
    <edge id="-E3" from="J4" to="J1" priority="-1">
        <lane id="-E3_0" index="0" speed="13.89" length="136.40" shape="158.00,-150.00 158.00,-13.60"/>
        <lane id="-E3_1" index="1" speed="13.89" length="136.40" shape="154.80,-150.00 154.80,-13.60"/>
        <lane id="-E3_2" index="2" speed="13.89" length="136.40" shape="151.60,-150.00 151.60,-13.60"/>
    </edge>
    <edge id="E0" from="J0" to="J1" priority="-1">
        <lane id="E0_0" index="0" speed="13.89" length="136.40" shape="0.00,-8.00 136.40,-8.00"/>
        <lane id="E0_1" index="1" speed="13.89" length="136.40" shape="0.00,-4.80 136.40,-4.80"/>
        <lane id="E0_2" index="2" speed="13.89" length="136.40" shape="0.00,-1.60 136.40,-1.60"/>
    </edge>
    <edge id="E1" from="J1" to="J2" priority="-1">
        <lane id="E1_0" index="0" speed="13.89" length="136.40" shape="163.60,-8.00 300.00,-8.00"/>
        <lane id="E1_1" index="1" speed="13.89" length="136.40" shape="163.60,-4.80 300.00,-4.80"/>
        <lane id="E1_2" index="2" speed="13.89" length="136.40" shape="163.60,-1.60 300.00,-1.60"/>
    </edge>
    <edge id="E2" from="J3" to="J1" priority="-1">
        <lane id="E2_0" index="0" speed="13.89" length="136.40" shape="142.00,150.00 142.00,13.60"/>
        <lane id="E2_1" index="1" speed="13.89" length="136.40" shape="145.20,150.00 145.20,13.60"/>
        <lane id="E2_2" index="2" speed="13.89" length="136.40" shape="148.40,150.00 148.40,13.60"/>
    </edge>
    <edge id="E3" from="J1" to="J4" priority="-1">
        <lane id="E3_0" index="0" speed="13.89" length="136.40" shape="142.00,-13.60 142.00,-150.00"/>
        <lane id="E3_1" index="1" speed="13.89" length="136.40" shape="145.20,-13.60 145.20,-150.00"/>
        <lane id="E3_2" index="2" speed="13.89" length="136.40" shape="148.40,-13.60 148.40,-150.00"/>
    </edge>

    <tlLogic id="J1" type="static" programID="0" offset="0">
        <phase duration="42" state="GGGGgrrrrrGGGGgrrrrr"/>
        <phase duration="3"  state="yyyyyrrrrryyyyyrrrrr"/>
        <phase duration="42" state="rrrrrGGGGgrrrrrGGGGg"/>
        <phase duration="3"  state="rrrrryyyyyrrrrryyyyy"/>
    </tlLogic>

    <junction id="J0" type="dead_end" x="0.00" y="0.00" incLanes="-E0_0 -E0_1 -E0_2" intLanes="" shape="0.00,0.00 0.00,9.60 0.00,0.00"/>
    <junction id="J1" type="traffic_light" x="150.00" y="0.00" incLanes="E2_0 E2_1 E2_2 -E1_0 -E1_1 -E1_2 -E3_0 -E3_1 -E3_2 E0_0 E0_1 E0_2" intLanes=":J1_0_0 :J1_1_0 :J1_1_1 :J1_1_2 :J1_20_0 :J1_5_0 :J1_6_0 :J1_6_1 :J1_6_2 :J1_21_0 :J1_10_0 :J1_11_0 :J1_11_1 :J1_11_2 :J1_22_0 :J1_15_0 :J1_16_0 :J1_16_1 :J1_16_2 :J1_23_0" shape="140.40,13.60 159.60,13.60 160.04,11.38 160.60,10.60 161.38,10.04 162.38,9.71 163.60,9.60 163.60,-9.60 161.38,-10.04 160.60,-10.60 160.04,-11.38 159.71,-12.38 159.60,-13.60 140.40,-13.60 139.96,-11.38 139.40,-10.60 138.62,-10.04 137.62,-9.71 136.40,-9.60 136.40,9.60 138.62,10.04 139.40,10.60 139.96,11.38 140.29,12.38">
        <request index="0"  response="00000000000000000000" foes="00000000000111000000" cont="0"/>
        <request index="1"  response="10000000001000000000" foes="11111100001111000000" cont="0"/>
        <request index="2"  response="10000000001000000000" foes="11111100001111000000" cont="0"/>
        <request index="3"  response="10000000001000000000" foes="11111100001111000000" cont="0"/>
        <request index="4"  response="10000011101000000000" foes="11110011101111000000" cont="1"/>
        <request index="5"  response="00000011100000000000" foes="00000011100000000000" cont="0"/>
        <request index="6"  response="00000111100000011111" foes="10000111100000011111" cont="0"/>
        <request index="7"  response="00000111100000011111" foes="10000111100000011111" cont="0"/>
        <request index="8"  response="00000111100000011111" foes="10000111100000011111" cont="0"/>
        <request index="9"  response="01110111100000011110" foes="01110111100000011110" cont="1"/>
        <request index="10" response="00000000000000000000" foes="01110000000000000000" cont="0"/>
        <request index="11" response="10000000001000000000" foes="11110000001111110000" cont="0"/>
        <request index="12" response="10000000001000000000" foes="11110000001111110000" cont="0"/>
        <request index="13" response="10000000001000000000" foes="11110000001111110000" cont="0"/>
        <request index="14" response="10000000001000001110" foes="11110000001111001110" cont="1"/>
        <request index="15" response="00000000000000001110" foes="00000000000000001110" cont="0"/>
        <request index="16" response="00000111110000011110" foes="00000111111000011110" cont="0"/>
        <request index="17" response="00000111110000011110" foes="00000111111000011110" cont="0"/>
        <request index="18" response="00000111110000011110" foes="00000111111000011110" cont="0"/>
        <request index="19" response="00000111100111011110" foes="00000111100111011110" cont="1"/>
    </junction>
    <junction id="J2" type="dead_end" x="300.00" y="0.00" incLanes="E1_0 E1_1 E1_2" intLanes="" shape="300.00,0.00 300.00,-9.60 300.00,0.00"/>
    <junction id="J3" type="dead_end" x="150.00" y="150.00" incLanes="-E2_0 -E2_1 -E2_2" intLanes="" shape="150.00,150.00 159.60,150.00 150.00,150.00"/>
    <junction id="J4" type="dead_end" x="150.00" y="-150.00" incLanes="E3_0 E3_1 E3_2" intLanes="" shape="150.00,-150.00 140.40,-150.00 150.00,-150.00"/>

    <junction id=":J1_20_0" type="internal" x="149.11" y="8.64" incLanes=":J1_4_0 -E3_0 -E3_1 -E3_2" intLanes=":J1_6_0 :J1_6_1 :J1_6_2 :J1_9_0 :J1_10_0 :J1_11_0 :J1_11_1 :J1_11_2 :J1_16_0 :J1_16_1 :J1_16_2 :J1_19_0"/>
    <junction id=":J1_21_0" type="internal" x="158.64" y="0.89" incLanes=":J1_9_0 E0_0 E0_1 E0_2" intLanes=":J1_1_0 :J1_1_1 :J1_1_2 :J1_4_0 :J1_11_0 :J1_11_1 :J1_11_2 :J1_14_0 :J1_15_0 :J1_16_0 :J1_16_1 :J1_16_2"/>
    <junction id=":J1_22_0" type="internal" x="150.89" y="-8.64" incLanes=":J1_14_0 E2_0 E2_1 E2_2" intLanes=":J1_0_0 :J1_1_0 :J1_1_1 :J1_1_2 :J1_6_0 :J1_6_1 :J1_6_2 :J1_9_0 :J1_16_0 :J1_16_1 :J1_16_2 :J1_19_0"/>
    <junction id=":J1_23_0" type="internal" x="141.36" y="-0.89" incLanes=":J1_19_0 -E1_0 -E1_1 -E1_2" intLanes=":J1_1_0 :J1_1_1 :J1_1_2 :J1_4_0 :J1_5_0 :J1_6_0 :J1_6_1 :J1_6_2 :J1_11_0 :J1_11_1 :J1_11_2 :J1_14_0"/>

    <connection from="-E1" to="-E2" fromLane="0" toLane="0" via=":J1_5_0" tl="J1" linkIndex="5" dir="r" state="o"/>
    <connection from="-E1" to="-E0" fromLane="0" toLane="0" via=":J1_6_0" tl="J1" linkIndex="6" dir="s" state="o"/>
    <connection from="-E1" to="-E0" fromLane="1" toLane="1" via=":J1_6_1" tl="J1" linkIndex="7" dir="s" state="o"/>
    <connection from="-E1" to="-E0" fromLane="2" toLane="2" via=":J1_6_2" tl="J1" linkIndex="8" dir="s" state="o"/>
    <connection from="-E1" to="E3" fromLane="2" toLane="2" via=":J1_9_0" tl="J1" linkIndex="9" dir="l" state="o"/>
    <connection from="-E3" to="E1" fromLane="0" toLane="0" via=":J1_10_0" tl="J1" linkIndex="10" dir="r" state="O"/>
    <connection from="-E3" to="-E2" fromLane="0" toLane="0" via=":J1_11_0" tl="J1" linkIndex="11" dir="s" state="O"/>
    <connection from="-E3" to="-E2" fromLane="1" toLane="1" via=":J1_11_1" tl="J1" linkIndex="12" dir="s" state="O"/>
    <connection from="-E3" to="-E2" fromLane="2" toLane="2" via=":J1_11_2" tl="J1" linkIndex="13" dir="s" state="O"/>
    <connection from="-E3" to="-E0" fromLane="2" toLane="2" via=":J1_14_0" tl="J1" linkIndex="14" dir="l" state="o"/>
    <connection from="E0" to="E3" fromLane="0" toLane="0" via=":J1_15_0" tl="J1" linkIndex="15" dir="r" state="o"/>
    <connection from="E0" to="E1" fromLane="0" toLane="0" via=":J1_16_0" tl="J1" linkIndex="16" dir="s" state="o"/>
    <connection from="E0" to="E1" fromLane="1" toLane="1" via=":J1_16_1" tl="J1" linkIndex="17" dir="s" state="o"/>
    <connection from="E0" to="E1" fromLane="2" toLane="2" via=":J1_16_2" tl="J1" linkIndex="18" dir="s" state="o"/>
    <connection from="E0" to="-E2" fromLane="2" toLane="2" via=":J1_19_0" tl="J1" linkIndex="19" dir="l" state="o"/>
    <connection from="E2" to="-E0" fromLane="0" toLane="0" via=":J1_0_0" tl="J1" linkIndex="0" dir="r" state="O"/>
    <connection from="E2" to="E3" fromLane="0" toLane="0" via=":J1_1_0" tl="J1" linkIndex="1" dir="s" state="O"/>
    <connection from="E2" to="E3" fromLane="1" toLane="1" via=":J1_1_1" tl="J1" linkIndex="2" dir="s" state="O"/>
    <connection from="E2" to="E3" fromLane="2" toLane="2" via=":J1_1_2" tl="J1" linkIndex="3" dir="s" state="O"/>
    <connection from="E2" to="E1" fromLane="2" toLane="2" via=":J1_4_0" tl="J1" linkIndex="4" dir="l" state="o"/>

    <connection from=":J1_0" to="-E0" fromLane="0" toLane="0" dir="r" state="M"/>
    <connection from=":J1_1" to="E3" fromLane="0" toLane="0" dir="s" state="M"/>
    <connection from=":J1_1" to="E3" fromLane="1" toLane="1" dir="s" state="M"/>
    <connection from=":J1_1" to="E3" fromLane="2" toLane="2" dir="s" state="M"/>
    <connection from=":J1_4" to="E1" fromLane="0" toLane="2" via=":J1_20_0" dir="l" state="m"/>
    <connection from=":J1_20" to="E1" fromLane="0" toLane="2" dir="l" state="M"/>
    <connection from=":J1_5" to="-E2" fromLane="0" toLane="0" dir="r" state="M"/>
    <connection from=":J1_6" to="-E0" fromLane="0" toLane="0" dir="s" state="M"/>
    <connection from=":J1_6" to="-E0" fromLane="1" toLane="1" dir="s" state="M"/>
    <connection from=":J1_6" to="-E0" fromLane="2" toLane="2" dir="s" state="M"/>
    <connection from=":J1_9" to="E3" fromLane="0" toLane="2" via=":J1_21_0" dir="l" state="m"/>
    <connection from=":J1_21" to="E3" fromLane="0" toLane="2" dir="l" state="M"/>
    <connection from=":J1_10" to="E1" fromLane="0" toLane="0" dir="r" state="M"/>
    <connection from=":J1_11" to="-E2" fromLane="0" toLane="0" dir="s" state="M"/>
    <connection from=":J1_11" to="-E2" fromLane="1" toLane="1" dir="s" state="M"/>
    <connection from=":J1_11" to="-E2" fromLane="2" toLane="2" dir="s" state="M"/>
    <connection from=":J1_14" to="-E0" fromLane="0" toLane="2" via=":J1_22_0" dir="l" state="m"/>
    <connection from=":J1_22" to="-E0" fromLane="0" toLane="2" dir="l" state="M"/>
    <connection from=":J1_15" to="E3" fromLane="0" toLane="0" dir="r" state="M"/>
    <connection from=":J1_16" to="E1" fromLane="0" toLane="0" dir="s" state="M"/>
    <connection from=":J1_16" to="E1" fromLane="1" toLane="1" dir="s" state="M"/>
    <connection from=":J1_16" to="E1" fromLane="2" toLane="2" dir="s" state="M"/>
    <connection from=":J1_19" to="-E2" fromLane="0" toLane="2" via=":J1_23_0" dir="l" state="m"/>
    <connection from=":J1_23" to="-E2" fromLane="0" toLane="2" dir="l" state="M"/>

</net>
