<?xml version="1.0" encoding="UTF-8"?>

<!-- generated on 2023-04-07 21:17:49 by Eclipse SUMO netconvert Version 1.16.0
<configuration xmlns:xsi="http://www.w3.org/2001/XMLSchema-instance" xsi:noNamespaceSchemaLocation="http://sumo.dlr.de/xsd/netconvertConfiguration.xsd">

    <input>
        <osm-files value="map.osm"/>
    </input>

    <output>
        <output-file value="hitwh.net.xml"/>
    </output>

    <projection>
        <proj.utm value="true"/>
    </projection>

</configuration>
-->

<net version="1.16" junctionCornerDetail="5" limitTurnSpeed="5.50" xmlns:xsi="http://www.w3.org/2001/XMLSchema-instance" xsi:noNamespaceSchemaLocation="http://sumo.dlr.de/xsd/net_file.xsd">

    <location netOffset="-415932.18,-4153007.91" convBoundary="0.00,0.00,3670.51,2308.59" origBoundary="122.048607,37.520426,122.089961,37.541209" projParameter="+proj=utm +zone=51 +ellps=WGS84 +datum=WGS84 +units=m +no_defs"/>

    <type id="highway.bridleway" priority="1" numLanes="1" speed="2.78" allow="pedestrian" oneway="1" width="2.00"/>
    <type id="highway.bus_guideway" priority="1" numLanes="1" speed="27.78" allow="bus" oneway="1"/>
    <type id="highway.cycleway" priority="1" numLanes="1" speed="5.56" allow="bicycle" oneway="0" width="1.00"/>
    <type id="highway.footway" priority="1" numLanes="1" speed="2.78" allow="pedestrian" oneway="1" width="2.00"/>
    <type id="highway.ford" priority="1" numLanes="1" speed="2.78" allow="army" oneway="0"/>
    <type id="highway.living_street" priority="2" numLanes="1" speed="2.78" disallow="tram rail_urban rail rail_electric rail_fast ship" oneway="0"/>
    <type id="highway.motorway" priority="14" numLanes="2" speed="39.44" allow="private emergency authority army vip passenger hov taxi bus coach delivery truck trailer motorcycle evehicle custom1 custom2" oneway="1"/>
    <type id="highway.motorway_link" priority="9" numLanes="1" speed="22.22" allow="private emergency authority army vip passenger hov taxi bus coach delivery truck trailer motorcycle evehicle custom1 custom2" oneway="1"/>
    <type id="highway.path" priority="1" numLanes="1" speed="5.56" allow="pedestrian bicycle" oneway="0" width="2.00"/>
    <type id="highway.pedestrian" priority="1" numLanes="1" speed="2.78" allow="pedestrian" oneway="1" width="2.00"/>
    <type id="highway.primary" priority="12" numLanes="2" speed="27.78" disallow="tram rail_urban rail rail_electric rail_fast ship" oneway="0"/>
    <type id="highway.primary_link" priority="7" numLanes="1" speed="22.22" disallow="tram rail_urban rail rail_electric rail_fast ship" oneway="0"/>
    <type id="highway.raceway" priority="15" numLanes="2" speed="83.33" allow="vip" oneway="0"/>
    <type id="highway.residential" priority="3" numLanes="1" speed="13.89" disallow="tram rail_urban rail rail_electric rail_fast ship" oneway="0"/>
    <type id="highway.secondary" priority="11" numLanes="1" speed="27.78" disallow="tram rail_urban rail rail_electric rail_fast ship" oneway="0"/>
    <type id="highway.secondary_link" priority="6" numLanes="1" speed="22.22" disallow="tram rail_urban rail rail_electric rail_fast ship" oneway="0"/>
    <type id="highway.service" priority="1" numLanes="1" speed="5.56" allow="pedestrian delivery bicycle" oneway="0"/>
    <type id="highway.stairs" priority="1" numLanes="1" speed="1.39" allow="pedestrian" oneway="1" width="2.00"/>
    <type id="highway.step" priority="1" numLanes="1" speed="1.39" allow="pedestrian" oneway="1" width="2.00"/>
    <type id="highway.steps" priority="1" numLanes="1" speed="1.39" allow="pedestrian" oneway="1" width="2.00"/>
    <type id="highway.tertiary" priority="10" numLanes="1" speed="22.22" disallow="tram rail_urban rail rail_electric rail_fast ship" oneway="0"/>
    <type id="highway.tertiary_link" priority="5" numLanes="1" speed="22.22" disallow="tram rail_urban rail rail_electric rail_fast ship" oneway="0"/>
    <type id="highway.track" priority="1" numLanes="1" speed="5.56" allow="pedestrian motorcycle moped bicycle" oneway="0"/>
    <type id="highway.trunk" priority="13" numLanes="2" speed="27.78" disallow="pedestrian bicycle tram rail_urban rail rail_electric rail_fast ship" oneway="0"/>
    <type id="highway.trunk_link" priority="8" numLanes="1" speed="22.22" disallow="pedestrian bicycle tram rail_urban rail rail_electric rail_fast ship" oneway="0"/>
    <type id="highway.unclassified" priority="4" numLanes="1" speed="13.89" disallow="tram rail_urban rail rail_electric rail_fast ship" oneway="0"/>
    <type id="highway.unsurfaced" priority="1" numLanes="1" speed="8.33" disallow="tram rail_urban rail rail_electric rail_fast ship" oneway="0"/>
    <type id="railway.highspeed" priority="21" numLanes="1" speed="69.44" allow="rail_fast" oneway="1"/>
    <type id="railway.light_rail" priority="19" numLanes="1" speed="27.78" allow="rail_urban" oneway="1"/>
    <type id="railway.preserved" priority="16" numLanes="1" speed="27.78" allow="rail" oneway="1"/>
    <type id="railway.rail" priority="20" numLanes="1" speed="44.44" allow="rail" oneway="1"/>
    <type id="railway.subway" priority="18" numLanes="1" speed="27.78" allow="rail_urban" oneway="1"/>
    <type id="railway.tram" priority="17" numLanes="1" speed="13.89" allow="tram" oneway="1"/>

    <edge id=":1232827228_0" function="internal">
        <lane id=":1232827228_0_0" index="0" disallow="tram rail_urban rail rail_electric rail_fast ship" speed="3.65" length="4.67" shape="1187.56,222.08 1186.52,221.08 1186.28,220.22 1186.81,219.51 1188.14,218.94"/>
    </edge>
    <edge id=":1232827328_0" function="internal">
        <lane id=":1232827328_0_0" index="0" disallow="tram rail_urban rail rail_electric rail_fast ship" speed="3.65" length="4.67" shape="2721.93,432.57 2722.47,431.23 2723.18,430.68 2724.04,430.91 2725.07,431.93"/>
    </edge>
    <edge id=":1232915871_0" function="internal">
        <lane id=":1232915871_0_0" index="0" disallow="tram rail_urban rail rail_electric rail_fast ship" speed="3.65" length="4.67" shape="3422.41,512.93 3423.76,513.44 3424.33,514.12 3424.13,514.99 3423.14,516.05"/>
    </edge>
    <edge id=":1232915901_0" function="internal">
        <lane id=":1232915901_0_0" index="0" disallow="tram rail_urban rail rail_electric rail_fast ship" speed="3.65" length="4.67" shape="3671.52,2063.55 3671.94,2064.93 3671.74,2065.81 3670.92,2066.17 3669.49,2066.03"/>
    </edge>
    <edge id=":1232915940_0" function="internal">
        <lane id=":1232915940_0_0" index="0" disallow="tram rail_urban rail rail_electric rail_fast ship" speed="3.65" length="4.67" shape="1216.94,1383.07 1215.79,1382.20 1215.44,1381.38 1215.89,1380.60 1217.13,1379.88"/>
    </edge>
    <edge id=":1232916033_0" function="internal">
        <lane id=":1232916033_0_0" index="0" disallow="tram rail_urban rail rail_electric rail_fast ship" speed="27.78" length="7.83" shape="2392.94,1692.63 2391.06,1691.46 2389.78,1690.62 2388.44,1689.94 2386.37,1689.21"/>
        <lane id=":1232916033_0_1" index="1" disallow="tram rail_urban rail rail_electric rail_fast ship" speed="27.78" length="7.83" shape="2394.57,1689.88 2392.50,1688.59 2391.08,1687.68 2389.59,1686.94 2387.30,1686.15"/>
    </edge>
    <edge id=":1232916033_2" function="internal">
        <lane id=":1232916033_2_0" index="0" allow="pedestrian delivery bicycle" speed="7.49" length="3.56" shape="2394.57,1689.88 2391.89,1687.53"/>
    </edge>
    <edge id=":1232916033_9" function="internal">
        <lane id=":1232916033_9_0" index="0" allow="pedestrian delivery bicycle" speed="7.49" length="10.98" shape="2391.89,1687.53 2391.06,1684.73 2392.08,1681.50 2394.95,1677.81"/>
    </edge>
    <edge id=":1232916033_3" function="internal">
        <lane id=":1232916033_3_0" index="0" allow="pedestrian delivery bicycle" speed="4.83" length="5.31" shape="2397.24,1680.04 2396.36,1681.26 2396.16,1682.39 2396.65,1683.43 2397.83,1684.37"/>
    </edge>
    <edge id=":1232916033_4" function="internal">
        <lane id=":1232916033_4_0" index="0" allow="pedestrian delivery bicycle" speed="9.14" length="12.05" shape="2397.24,1680.04 2394.06,1683.07 2391.34,1685.10 2389.09,1686.12 2387.30,1686.15"/>
    </edge>
    <edge id=":1232916033_5" function="internal">
        <lane id=":1232916033_5_0" index="0" allow="pedestrian delivery bicycle" speed="3.65" length="4.67" shape="2397.24,1680.04 2395.83,1680.34 2394.98,1680.07 2394.69,1679.23 2394.95,1677.81"/>
    </edge>
    <edge id=":1232916033_6" function="internal">
        <lane id=":1232916033_6_0" index="0" allow="pedestrian delivery bicycle" speed="6.86" length="6.50" shape="2389.18,1680.03 2390.59,1680.21 2392.02,1679.90 2393.47,1679.10 2394.95,1677.81"/>
    </edge>
    <edge id=":1232916033_7" function="internal">
        <lane id=":1232916033_7_0" index="0" disallow="tram rail_urban rail rail_electric rail_fast ship" speed="27.78" length="9.34" shape="2389.18,1680.03 2391.90,1680.96 2393.68,1681.81 2395.37,1682.85 2397.83,1684.37"/>
        <lane id=":1232916033_7_1" index="1" disallow="tram rail_urban rail rail_electric rail_fast ship" speed="27.78" length="9.34" shape="2388.24,1683.09 2390.74,1683.95 2392.38,1684.75 2393.93,1685.72 2396.20,1687.12"/>
    </edge>
    <edge id=":1232916142_0" function="internal">
        <lane id=":1232916142_0_0" index="0" disallow="tram rail_urban rail rail_electric rail_fast ship" speed="27.78" length="11.43" shape="2243.73,1670.99 2232.33,1670.35"/>
        <lane id=":1232916142_0_1" index="1" disallow="tram rail_urban rail rail_electric rail_fast ship" speed="27.78" length="11.43" shape="2243.91,1667.80 2232.49,1667.16"/>
    </edge>
    <edge id=":1232916142_2" function="internal">
        <lane id=":1232916142_2_0" index="0" allow="pedestrian delivery bicycle" speed="7.63" length="5.40" shape="2243.91,1667.80 2238.60,1666.79"/>
    </edge>
    <edge id=":1232916142_9" function="internal">
        <lane id=":1232916142_9_0" index="0" allow="pedestrian delivery bicycle" speed="7.63" length="14.38" shape="2238.60,1666.79 2238.15,1666.71 2235.66,1664.26 2236.43,1660.46 2240.47,1655.31"/>
    </edge>
    <edge id=":1232916142_3" function="internal">
        <lane id=":1232916142_3_0" index="0" allow="pedestrian delivery bicycle" speed="4.66" length="6.37" shape="2242.76,1657.54 2241.55,1659.13 2241.39,1660.30 2242.30,1661.06 2244.27,1661.41"/>
    </edge>
    <edge id=":1232916142_4" function="internal">
        <lane id=":1232916142_4_0" index="0" allow="pedestrian delivery bicycle" speed="11.66" length="14.10" shape="2242.76,1657.54 2241.00,1659.35 2237.74,1662.64 2234.42,1665.78 2232.49,1667.16"/>
    </edge>
    <edge id=":1232916142_5" function="internal">
        <lane id=":1232916142_5_0" index="0" allow="pedestrian delivery bicycle" speed="3.65" length="4.67" shape="2242.76,1657.54 2241.35,1657.84 2240.50,1657.57 2240.20,1656.72 2240.47,1655.31"/>
    </edge>
    <edge id=":1232916142_6" function="internal">
        <lane id=":1232916142_6_0" index="0" allow="pedestrian delivery bicycle" speed="9.67" length="9.55" shape="2232.82,1660.77 2234.14,1660.47 2235.85,1659.46 2237.96,1657.74 2240.47,1655.31"/>
    </edge>
    <edge id=":1232916142_7" function="internal">
        <lane id=":1232916142_7_0" index="0" disallow="tram rail_urban rail rail_electric rail_fast ship" speed="27.78" length="11.46" shape="2232.82,1660.77 2244.27,1661.41"/>
        <lane id=":1232916142_7_1" index="1" disallow="tram rail_urban rail rail_electric rail_fast ship" speed="27.78" length="11.46" shape="2232.66,1663.96 2244.09,1664.60"/>
    </edge>
    <edge id=":1232916296_0" function="internal">
        <lane id=":1232916296_0_0" index="0" allow="pedestrian motorcycle moped bicycle" speed="6.11" length="9.06" shape="2479.79,1770.01 2478.08,1768.11 2476.26,1767.35 2474.33,1767.75 2472.30,1769.31"/>
    </edge>
    <edge id=":1232916296_1" function="internal">
        <lane id=":1232916296_1_0" index="0" disallow="tram rail_urban rail rail_electric rail_fast ship" speed="27.78" length="14.82" shape="2479.79,1770.01 2477.38,1766.39 2475.68,1763.94 2473.88,1761.57 2471.13,1758.20"/>
        <lane id=":1232916296_1_1" index="1" disallow="tram rail_urban rail rail_electric rail_fast ship" speed="27.78" length="14.82" shape="2482.45,1768.23 2479.98,1764.53 2478.25,1762.03 2476.41,1759.61 2473.59,1756.16"/>
    </edge>
    <edge id=":1232916296_3" function="internal">
        <lane id=":1232916296_3_0" index="0" disallow="tram rail_urban rail rail_electric rail_fast ship" speed="3.65" length="1.44" shape="2482.45,1768.23 2482.45,1766.79"/>
    </edge>
    <edge id=":1232916296_11" function="internal">
        <lane id=":1232916296_11_0" index="0" disallow="tram rail_urban rail rail_electric rail_fast ship" speed="3.65" length="3.23" shape="2482.45,1766.79 2482.89,1766.01 2483.78,1765.90 2485.11,1766.45"/>
    </edge>
    <edge id=":1232916296_4" function="internal">
        <lane id=":1232916296_4_0" index="0" disallow="tram rail_urban rail rail_electric rail_fast ship" speed="27.78" length="15.48" shape="2478.52,1752.08 2481.46,1755.68 2483.39,1758.20 2485.20,1760.81 2487.77,1764.67"/>
        <lane id=":1232916296_4_1" index="1" disallow="tram rail_urban rail rail_electric rail_fast ship" speed="27.78" length="15.48" shape="2476.06,1754.12 2478.93,1757.64 2480.82,1760.11 2482.59,1762.67 2485.11,1766.45"/>
    </edge>
    <edge id=":1232916296_6" function="internal">
        <lane id=":1232916296_6_0" index="0" allow="pedestrian motorcycle moped bicycle" speed="9.12" length="3.44" shape="2476.06,1754.12 2477.63,1757.18"/>
    </edge>
    <edge id=":1232916296_7" function="internal">
        <lane id=":1232916296_7_0" index="0" disallow="tram rail_urban rail rail_electric rail_fast ship" speed="3.65" length="1.44" shape="2476.06,1754.12 2476.21,1755.56"/>
    </edge>
    <edge id=":1232916296_12" function="internal">
        <lane id=":1232916296_12_0" index="0" allow="pedestrian motorcycle moped bicycle" speed="9.12" length="13.82" shape="2477.63,1757.18 2477.73,1757.38 2477.67,1761.00 2475.85,1764.97 2472.30,1769.31"/>
    </edge>
    <edge id=":1232916296_13" function="internal">
        <lane id=":1232916296_13_0" index="0" disallow="tram rail_urban rail rail_electric rail_fast ship" speed="3.65" length="3.23" shape="2476.21,1755.56 2475.85,1756.37 2474.97,1756.58 2473.59,1756.16"/>
    </edge>
    <edge id=":1232916296_8" function="internal">
        <lane id=":1232916296_8_0" index="0" allow="pedestrian motorcycle moped bicycle" speed="7.06" length="9.95" shape="2470.01,1767.07 2471.80,1764.76 2472.58,1762.51 2472.36,1760.33 2471.13,1758.20"/>
    </edge>
    <edge id=":1232916296_9" function="internal">
        <lane id=":1232916296_9_0" index="0" allow="pedestrian motorcycle moped bicycle" speed="8.37" length="18.08" shape="2470.01,1767.07 2474.42,1763.50 2478.40,1762.21 2481.97,1763.20 2485.11,1766.45"/>
    </edge>
    <edge id=":1232916296_10" function="internal">
        <lane id=":1232916296_10_0" index="0" allow="pedestrian motorcycle moped bicycle" speed="3.65" length="4.67" shape="2470.01,1767.07 2471.42,1766.77 2472.27,1767.04 2472.57,1767.89 2472.30,1769.31"/>
    </edge>
    <edge id=":1232916297_0" function="internal">
        <lane id=":1232916297_0_0" index="0" disallow="tram rail_urban rail rail_electric rail_fast ship" speed="20.84" length="32.84" shape="2124.96,1672.40 2119.54,1670.24 2111.31,1667.33 2102.27,1663.93 2094.44,1660.32"/>
    </edge>
    <edge id=":1232916297_1" function="internal">
        <lane id=":1232916297_1_0" index="0" disallow="tram rail_urban rail rail_electric rail_fast ship" speed="6.92" length="19.50" shape="2124.96,1672.40 2121.35,1668.67 2120.87,1663.98 2123.19,1660.02 2127.97,1658.53"/>
    </edge>
    <edge id=":1232916297_2" function="internal">
        <lane id=":1232916297_2_0" index="0" disallow="tram rail_urban rail rail_electric rail_fast ship" speed="3.65" length="4.67" shape="2124.96,1672.40 2124.25,1671.15 2124.25,1670.25 2124.97,1669.72 2126.41,1669.55"/>
    </edge>
    <edge id=":1232916297_3" function="internal">
        <lane id=":1232916297_3_0" index="0" disallow="tram rail_urban rail rail_electric rail_fast ship" speed="5.69" length="12.53" shape="2127.64,1664.92 2123.23,1664.99 2121.55,1665.78 2122.61,1667.30 2126.41,1669.55"/>
    </edge>
    <edge id=":1232916297_4" function="internal">
        <lane id=":1232916297_4_0" index="0" disallow="tram rail_urban rail rail_electric rail_fast ship" speed="27.78" length="33.06" shape="2127.64,1664.92 2119.47,1664.66 2110.58,1664.24 2101.92,1663.00 2094.44,1660.32"/>
        <lane id=":1232916297_4_1" index="1" disallow="tram rail_urban rail rail_electric rail_fast ship" speed="27.78" length="33.06" shape="2127.80,1661.73 2119.85,1661.53 2111.43,1661.24 2103.25,1660.14 2095.99,1657.52"/>
    </edge>
    <edge id=":1232916297_6" function="internal">
        <lane id=":1232916297_6_0" index="0" disallow="tram rail_urban rail rail_electric rail_fast ship" speed="3.65" length="1.44" shape="2127.80,1661.73 2126.64,1660.86"/>
    </edge>
    <edge id=":1232916297_11" function="internal">
        <lane id=":1232916297_11_0" index="0" disallow="tram rail_urban rail rail_electric rail_fast ship" speed="3.65" length="3.23" shape="2126.64,1660.86 2126.29,1660.04 2126.73,1659.27 2127.97,1658.53"/>
    </edge>
    <edge id=":1232916297_7" function="internal">
        <lane id=":1232916297_7_0" index="0" disallow="tram rail_urban rail rail_electric rail_fast ship" speed="21.74" length="29.78" shape="2099.09,1651.90 2105.55,1654.96 2112.82,1655.73 2120.49,1655.44 2128.13,1655.33"/>
        <lane id=":1232916297_7_1" index="1" disallow="tram rail_urban rail rail_electric rail_fast ship" speed="27.78" length="30.95" shape="2097.53,1654.72 2104.58,1657.28 2112.29,1658.24 2120.23,1658.39 2127.97,1658.53"/>
    </edge>
    <edge id=":1232916297_9" function="internal">
        <lane id=":1232916297_9_0" index="0" disallow="tram rail_urban rail rail_electric rail_fast ship" speed="20.84" length="32.46" shape="2097.53,1654.72 2126.41,1669.55"/>
    </edge>
    <edge id=":1232916297_10" function="internal">
        <lane id=":1232916297_10_0" index="0" disallow="tram rail_urban rail rail_electric rail_fast ship" speed="3.65" length="1.29" shape="2097.53,1654.72 2098.13,1655.86"/>
    </edge>
    <edge id=":1232916297_12" function="internal">
        <lane id=":1232916297_12_0" index="0" disallow="tram rail_urban rail rail_electric rail_fast ship" speed="3.65" length="3.38" shape="2098.13,1655.86 2098.20,1656.00 2098.16,1656.89 2097.42,1657.40 2095.99,1657.52"/>
    </edge>
    <edge id=":1233203261_0" function="internal">
        <lane id=":1233203261_0_0" index="0" disallow="tram rail_urban rail rail_electric rail_fast ship" speed="3.65" length="4.67" shape="1533.07,1235.47 1531.63,1235.34 1530.90,1234.83 1530.87,1233.94 1531.54,1232.66"/>
    </edge>
    <edge id=":1233203263_0" function="internal">
        <lane id=":1233203263_0_0" index="0" disallow="tram rail_urban rail rail_electric rail_fast ship" speed="3.65" length="4.67" shape="1436.55,882.31 1435.36,881.49 1434.97,880.69 1435.38,879.89 1436.59,879.11"/>
    </edge>
    <edge id=":1234289617_0" function="internal">
        <lane id=":1234289617_0_0" index="0" disallow="tram rail_urban rail rail_electric rail_fast ship" speed="3.65" length="4.67" shape="2962.10,857.72 2963.43,858.26 2963.99,858.96 2963.76,859.83 2962.74,860.85"/>
    </edge>
    <edge id=":1234289678_0" function="internal">
        <lane id=":1234289678_0_0" index="0" disallow="tram rail_urban rail rail_electric rail_fast ship" speed="27.78" length="14.20" shape="2831.86,893.44 2828.97,879.53"/>
    </edge>
    <edge id=":1234289678_1" function="internal">
        <lane id=":1234289678_1_0" index="0" disallow="tram rail_urban rail rail_electric rail_fast ship" speed="8.00" length="3.86" shape="2831.86,893.44 2831.66,889.59"/>
    </edge>
    <edge id=":1234289678_2" function="internal">
        <lane id=":1234289678_2_0" index="0" disallow="tram rail_urban rail rail_electric rail_fast ship" speed="3.65" length="1.44" shape="2831.86,893.44 2832.42,892.11"/>
    </edge>
    <edge id=":1234289678_9" function="internal">
        <lane id=":1234289678_9_0" index="0" disallow="tram rail_urban rail rail_electric rail_fast ship" speed="8.00" length="10.23" shape="2831.66,889.59 2832.74,886.58 2835.10,884.43 2838.72,883.13"/>
    </edge>
    <edge id=":1234289678_10" function="internal">
        <lane id=":1234289678_10_0" index="0" disallow="tram rail_urban rail rail_electric rail_fast ship" speed="3.65" length="3.23" shape="2832.42,892.11 2833.13,891.56 2833.99,891.80 2835.00,892.82"/>
    </edge>
    <edge id=":1234289678_3" function="internal">
        <lane id=":1234289678_3_0" index="0" disallow="tram rail_urban rail rail_electric rail_fast ship" speed="6.51" length="8.97" shape="2839.37,886.26 2837.06,887.09 2835.56,888.46 2834.88,890.37 2835.00,892.82"/>
    </edge>
    <edge id=":1234289678_4" function="internal">
        <lane id=":1234289678_4_0" index="0" disallow="tram rail_urban rail rail_electric rail_fast ship" speed="8.02" length="14.08" shape="2839.37,886.26 2835.52,886.50 2832.51,885.46 2830.32,883.14 2828.97,879.53"/>
    </edge>
    <edge id=":1234289678_5" function="internal">
        <lane id=":1234289678_5_0" index="0" disallow="tram rail_urban rail rail_electric rail_fast ship" speed="3.65" length="4.67" shape="2839.37,886.26 2838.03,885.72 2837.48,885.02 2837.71,884.15 2838.72,883.13"/>
    </edge>
    <edge id=":1234289678_6" function="internal">
        <lane id=":1234289678_6_0" index="0" disallow="tram rail_urban rail rail_electric rail_fast ship" speed="6.52" length="8.98" shape="2832.09,878.84 2832.95,881.14 2834.35,882.62 2836.27,883.28 2838.72,883.13"/>
    </edge>
    <edge id=":1234289678_7" function="internal">
        <lane id=":1234289678_7_0" index="0" disallow="tram rail_urban rail rail_electric rail_fast ship" speed="27.78" length="14.28" shape="2832.09,878.84 2835.00,892.82"/>
    </edge>
    <edge id=":1234289678_8" function="internal">
        <lane id=":1234289678_8_0" index="0" disallow="tram rail_urban rail rail_electric rail_fast ship" speed="3.65" length="1.44" shape="2832.09,878.84 2831.57,880.19"/>
    </edge>
    <edge id=":1234289678_11" function="internal">
        <lane id=":1234289678_11_0" index="0" disallow="tram rail_urban rail rail_electric rail_fast ship" speed="3.65" length="3.23" shape="2831.57,880.19 2830.87,880.75 2830.01,880.53 2828.97,879.53"/>
    </edge>
    <edge id=":1234289680_0" function="internal">
        <lane id=":1234289680_0_0" index="0" disallow="tram rail_urban rail rail_electric rail_fast ship" speed="13.89" length="14.38" shape="2941.31,621.53 2927.29,624.72"/>
    </edge>
    <edge id=":1234289680_1" function="internal">
        <lane id=":1234289680_1_0" index="0" disallow="tram rail_urban rail rail_electric rail_fast ship" speed="7.91" length="4.09" shape="2941.31,621.53 2937.35,621.84 2937.24,621.80"/>
    </edge>
    <edge id=":1234289680_2" function="internal">
        <lane id=":1234289680_2_0" index="0" disallow="tram rail_urban rail rail_electric rail_fast ship" speed="3.65" length="1.44" shape="2941.31,621.53 2939.96,621.01"/>
    </edge>
    <edge id=":1234289680_9" function="internal">
        <lane id=":1234289680_9_0" index="0" disallow="tram rail_urban rail rail_electric rail_fast ship" speed="7.91" length="10.31" shape="2937.24,621.80 2934.30,620.79 2932.17,618.37 2930.96,614.58"/>
    </edge>
    <edge id=":1234289680_10" function="internal">
        <lane id=":1234289680_10_0" index="0" disallow="tram rail_urban rail rail_electric rail_fast ship" speed="3.65" length="3.23" shape="2939.96,621.01 2939.40,620.32 2939.61,619.45 2940.61,618.41"/>
    </edge>
    <edge id=":1234289680_3" function="internal">
        <lane id=":1234289680_3_0" index="0" disallow="tram rail_urban rail rail_electric rail_fast ship" speed="6.40" length="9.04" shape="2934.11,614.05 2934.87,616.42 2936.21,617.94 2938.12,618.60 2940.61,618.41"/>
    </edge>
    <edge id=":1234289680_4" function="internal">
        <lane id=":1234289680_4_0" index="0" disallow="tram rail_urban rail rail_electric rail_fast ship" speed="8.20" length="14.26" shape="2934.11,614.05 2934.24,618.00 2933.15,621.09 2930.83,623.34 2927.29,624.72"/>
    </edge>
    <edge id=":1234289680_5" function="internal">
        <lane id=":1234289680_5_0" index="0" disallow="tram rail_urban rail rail_electric rail_fast ship" speed="3.65" length="4.67" shape="2934.11,614.05 2933.52,615.36 2932.80,615.89 2931.94,615.63 2930.96,614.58"/>
    </edge>
    <edge id=":1234289680_6" function="internal">
        <lane id=":1234289680_6_0" index="0" disallow="tram rail_urban rail rail_electric rail_fast ship" speed="6.74" length="9.32" shape="2926.57,621.60 2928.86,620.70 2930.35,619.23 2931.05,617.19 2930.96,614.58"/>
    </edge>
    <edge id=":1234289680_7" function="internal">
        <lane id=":1234289680_7_0" index="0" disallow="tram rail_urban rail rail_electric rail_fast ship" speed="13.89" length="14.40" shape="2926.57,621.60 2940.61,618.41"/>
    </edge>
    <edge id=":1234289680_8" function="internal">
        <lane id=":1234289680_8_0" index="0" disallow="tram rail_urban rail rail_electric rail_fast ship" speed="3.65" length="1.44" shape="2926.57,621.60 2927.92,622.11"/>
    </edge>
    <edge id=":1234289680_11" function="internal">
        <lane id=":1234289680_11_0" index="0" disallow="tram rail_urban rail rail_electric rail_fast ship" speed="3.65" length="3.23" shape="2927.92,622.11 2928.49,622.80 2928.28,623.67 2927.29,624.72"/>
    </edge>
    <edge id=":1234289703_0" function="internal">
        <lane id=":1234289703_0_0" index="0" disallow="tram rail_urban rail rail_electric rail_fast ship" speed="27.78" length="14.71" shape="2773.79,666.10 2770.13,651.85"/>
    </edge>
    <edge id=":1234289703_1" function="internal">
        <lane id=":1234289703_1_0" index="0" disallow="tram rail_urban rail rail_electric rail_fast ship" speed="7.90" length="4.37" shape="2773.79,666.10 2773.23,662.16 2773.33,661.79"/>
    </edge>
    <edge id=":1234289703_2" function="internal">
        <lane id=":1234289703_2_0" index="0" disallow="tram rail_urban rail rail_electric rail_fast ship" speed="3.65" length="1.44" shape="2773.79,666.10 2774.22,664.73"/>
    </edge>
    <edge id=":1234289703_9" function="internal">
        <lane id=":1234289703_9_0" index="0" disallow="tram rail_urban rail rail_electric rail_fast ship" speed="7.90" length="10.05" shape="2773.33,661.79 2774.10,659.05 2776.39,656.78 2780.10,655.34"/>
    </edge>
    <edge id=":1234289703_10" function="internal">
        <lane id=":1234289703_10_0" index="0" disallow="tram rail_urban rail rail_electric rail_fast ship" speed="3.65" length="3.23" shape="2774.22,664.73 2774.88,664.12 2775.76,664.28 2776.86,665.21"/>
    </edge>
    <edge id=":1234289703_3" function="internal">
        <lane id=":1234289703_3_0" index="0" disallow="tram rail_urban rail rail_electric rail_fast ship" speed="6.38" length="9.04" shape="2780.82,658.46 2778.49,659.36 2777.05,660.79 2776.51,662.73 2776.86,665.21"/>
    </edge>
    <edge id=":1234289703_4" function="internal">
        <lane id=":1234289703_4_0" index="0" disallow="tram rail_urban rail rail_electric rail_fast ship" speed="8.02" length="14.36" shape="2780.82,658.46 2776.86,658.81 2773.76,657.82 2771.52,655.50 2770.13,651.85"/>
    </edge>
    <edge id=":1234289703_5" function="internal">
        <lane id=":1234289703_5_0" index="0" disallow="tram rail_urban rail rail_electric rail_fast ship" speed="3.65" length="4.67" shape="2780.82,658.46 2779.47,657.95 2778.90,657.26 2779.11,656.39 2780.10,655.34"/>
    </edge>
    <edge id=":1234289703_6" function="internal">
        <lane id=":1234289703_6_0" index="0" disallow="tram rail_urban rail rail_electric rail_fast ship" speed="6.53" length="9.16" shape="2773.26,651.16 2774.14,653.47 2775.57,654.94 2777.56,655.57 2780.10,655.34"/>
    </edge>
    <edge id=":1234289703_7" function="internal">
        <lane id=":1234289703_7_0" index="0" disallow="tram rail_urban rail rail_electric rail_fast ship" speed="27.78" length="14.50" shape="2773.26,651.16 2776.86,665.21"/>
    </edge>
    <edge id=":1234289703_8" function="internal">
        <lane id=":1234289703_8_0" index="0" disallow="tram rail_urban rail rail_electric rail_fast ship" speed="3.65" length="1.44" shape="2773.26,651.16 2772.74,652.50"/>
    </edge>
    <edge id=":1234289703_11" function="internal">
        <lane id=":1234289703_11_0" index="0" disallow="tram rail_urban rail rail_electric rail_fast ship" speed="3.65" length="3.23" shape="2772.74,652.50 2772.04,653.07 2771.17,652.85 2770.13,651.85"/>
    </edge>
    <edge id=":1234289731_0" function="internal">
        <lane id=":1234289731_0_0" index="0" disallow="tram rail_urban rail rail_electric rail_fast ship" speed="13.89" length="14.34" shape="3019.99,603.98 3005.98,607.03"/>
    </edge>
    <edge id=":1234289731_1" function="internal">
        <lane id=":1234289731_1_0" index="0" disallow="tram rail_urban rail rail_electric rail_fast ship" speed="8.00" length="4.02" shape="3019.99,603.98 3016.11,604.24 3015.98,604.20"/>
    </edge>
    <edge id=":1234289731_2" function="internal">
        <lane id=":1234289731_2_0" index="0" disallow="tram rail_urban rail rail_electric rail_fast ship" speed="3.65" length="1.44" shape="3019.99,603.98 3018.65,603.45"/>
    </edge>
    <edge id=":1234289731_9" function="internal">
        <lane id=":1234289731_9_0" index="0" disallow="tram rail_urban rail rail_electric rail_fast ship" speed="8.00" length="10.17" shape="3015.98,604.20 3013.08,603.19 3010.89,600.84 3009.56,597.19"/>
    </edge>
    <edge id=":1234289731_10" function="internal">
        <lane id=":1234289731_10_0" index="0" disallow="tram rail_urban rail rail_electric rail_fast ship" speed="3.65" length="3.23" shape="3018.65,603.45 3018.09,602.75 3018.32,601.88 3019.33,600.85"/>
    </edge>